$
$ Elements and Element Properties for region : beam_prop
PBEAML   1       1               BAR
*       .050673           .0032131
*
$ Pset: "beam_prop" will be imported as: "pbeaml.1"
CBEAM    1       1       1       2       0.      0.     1.
CBEAM    2       1       2       3       0.      0.     1.
CBEAM    3       1       3       4       0.      0.     1.
CBEAM    4       1       4       5       0.      0.     1.
CBEAM    5       1       5       6       0.      0.     1.
CBEAM    6       1       6       7       0.      0.     1.
CBEAM    7       1       7       8       0.      0.     1.
CBEAM    8       1       8       9       0.      0.     1.
CBEAM    9       1       9       10      0.      0.     1.
CBEAM    10      1       10      11      0.      0.     1.
CBEAM    11      1       11      12      0.      0.     1.
CBEAM    12      1       12      13      0.      0.     1.
CBEAM    13      1       13      14      0.      0.     1.
CBEAM    14      1       14      15      0.      0.     1.
CBEAM    15      1       15      16      0.      0.     1.
CBEAM    16      1       16      17      0.      0.     1.
CBEAM    17      1       17      18      0.      0.     1.
CBEAM    18      1       18      19      0.      0.     1.
CBEAM    19      1       19      20      0.      0.     1.
CBEAM    20      1       20      21      0.      0.     1.
$ ... 346 like lines cut
$ Referenced Material Records
$ Material Record : Aluminum
$ Description of Material : Date: 28-Oct-19           Time: 18:47:28
MAT1     1      6.89+10         .33     2700.
$ Nodes of the Entire Model
GRID     1               0.      0.      0.
GRID*    2                              .009993442334235 0.
*        0.
GRID*    3                              .019986884668469 0.
*        0.
GRID*    4                              .029980326071382 0.
*        0.
GRID*    5                              .039973769336939 0.
*        0.
GRID*    6                              .049967214465141 0.
*        0.
GRID*    7                              .059960652142763 0.
*        0.
GRID*    8                              .069954097270966 0.
*        0.
GRID*    9                              .079947538673878 0.
*        0.
GRID*    10                             .08994098007679  0.
*        0.
GRID*    11                             .099934421479702 0.
*        0.
GRID*    12                             .109927862882614 0.
*        0.
GRID*    13                             .119921304285526 0.
*        0.
GRID*    14                             .1299147605896   0.
*        0.
GRID*    15                             .139908194541931 0.
*        0.
GRID*    16                             .149901643395424 0.
*        0.
GRID*    17                             .159895092248917 0.
*        0.
GRID*    18                             .169888541102409 0.
*        0.
GRID*    19                             .179881989955902 0.
*        0.
GRID*    20                             .189875438809395 0.
*        0.
GRID*    21                             .199868872761726 0.
*        0.
$ ... 692 like lines cut

